Version 4
SHEET 1 3380 1524
WIRE -320 80 -320 -96
WIRE -224 80 -320 80
WIRE -80 80 -144 80
WIRE 128 80 -80 80
WIRE 448 80 368 80
WIRE 608 80 608 -96
WIRE 608 80 528 80
WIRE 368 128 368 80
WIRE 816 128 368 128
WIRE 896 128 816 128
WIRE 1056 128 976 128
WIRE 128 144 128 80
WIRE 816 160 816 128
WIRE 1056 176 1056 128
WIRE -320 208 -320 80
WIRE -80 208 -80 80
WIRE 368 208 368 128
WIRE 608 208 608 80
WIRE -368 256 -448 256
WIRE 32 256 -32 256
WIRE 128 256 128 224
WIRE 320 256 128 256
WIRE 816 256 816 224
WIRE 816 256 656 256
WIRE 1056 288 1056 272
WIRE 816 400 816 256
WIRE 1056 400 1056 384
WIRE 1056 400 816 400
WIRE 336 464 336 304
WIRE 464 464 336 464
WIRE 640 464 640 304
WIRE 640 464 544 464
WIRE 976 464 640 464
WIRE 1088 464 976 464
WIRE 1200 464 1088 464
WIRE 1264 464 1200 464
WIRE -352 496 -352 304
WIRE -48 496 -48 304
WIRE -48 496 -352 496
WIRE -352 512 -352 496
WIRE 336 512 336 464
WIRE 400 512 336 512
WIRE 816 512 816 400
WIRE 976 512 976 464
WIRE 1088 512 1088 464
WIRE 1200 512 1200 464
WIRE 336 528 336 512
WIRE 400 544 400 512
WIRE 336 624 336 608
WIRE 400 624 400 608
WIRE 400 624 336 624
WIRE 816 640 816 592
WIRE 976 640 976 592
WIRE 976 640 816 640
WIRE 1088 640 1088 592
WIRE 1088 640 976 640
WIRE 336 656 336 624
WIRE 816 688 816 640
WIRE -352 736 -352 592
WIRE -112 736 -352 736
WIRE 128 736 128 256
WIRE 128 736 -32 736
WIRE 1200 736 1200 576
WIRE 1200 736 128 736
WIRE -352 800 -352 736
FLAG -352 800 B-
IOPIN -352 800 In
FLAG -320 -96 B+
IOPIN -320 -96 In
FLAG 32 256 +IN
IOPIN 32 256 In
FLAG -448 256 -IN
IOPIN -448 256 In
FLAG 608 -96 B+
FLAG 816 688 B-
FLAG 1264 464 OUT
IOPIN 1264 464 Out
FLAG 336 656 GND
IOPIN 336 656 In
SYMBOL res -240 96 R270
WINDOW 0 32 56 VTop 2
WINDOW 3 0 56 VBottom 2
SYMATTR InstName R1
SYMATTR Value 220k
SYMBOL res 112 128 R0
SYMATTR InstName R2
SYMATTR Value 1Meg
SYMBOL res -16 720 R90
WINDOW 0 0 56 VBottom 2
WINDOW 3 32 56 VTop 2
SYMATTR InstName R3
SYMATTR Value 2.2Meg
SYMBOL res 432 96 R270
WINDOW 0 32 56 VTop 2
WINDOW 3 0 56 VBottom 2
SYMATTR InstName R4
SYMATTR Value 470k
SYMBOL res 880 144 R270
WINDOW 0 32 56 VTop 2
WINDOW 3 0 56 VBottom 2
SYMATTR InstName R5
SYMATTR Value 680k
SYMBOL res 800 496 R0
SYMATTR InstName R6
SYMATTR Value 4.7Meg
SYMBOL res 1072 496 R0
SYMATTR InstName R7
SYMATTR Value 270k
SYMBOL cap 384 544 R0
SYMATTR InstName C1
SYMATTR Value 500p
SYMATTR SpiceLine Rser=.005
SYMBOL cap 800 160 R0
SYMATTR InstName C2
SYMATTR Value 7.5p
SYMATTR SpiceLine Rser=.005
SYMBOL res -368 496 R0
SYMATTR InstName R8
SYMATTR Value 220k
SYMBOL res 560 448 R90
WINDOW 0 0 56 VBottom 2
WINDOW 3 32 56 VTop 2
SYMATTR InstName R9
SYMATTR Value 220k
SYMBOL res 960 496 R0
SYMATTR InstName R10
SYMATTR Value 220k
SYMBOL res 352 624 R180
WINDOW 0 36 76 Left 2
WINDOW 3 36 40 Left 2
SYMATTR InstName R11
SYMATTR Value 10k
SYMBOL cap 1184 512 R0
SYMATTR InstName C5
SYMATTR Value 7.5p
SYMATTR SpiceLine Rser=.005
SYMBOL Misc\\neonbulb 1056 224 R0
SYMATTR InstName U1
SYMATTR Value2 Vstrike=80 Vhold=60
SYMATTR SpiceLine Zon=2K Ihold=20u
SYMATTR SpiceLine2 Tau=40u
SYMBOL Misc\\triode -320 256 R0
SYMATTR InstName U3
SYMATTR Value NH12AX7
SYMATTR SpiceModel NH12AX7
SYMBOL Misc\\triode 368 256 R0
SYMATTR InstName U4
SYMATTR Value NH12AX7
SYMATTR SpiceModel NH12AX7
SYMBOL Misc\\triode 608 256 M0
SYMATTR InstName U5
SYMATTR Value NH12AX7
SYMATTR SpiceModel NH12AX7
SYMBOL Misc\\triode -80 256 M0
SYMATTR InstName U6
SYMATTR Value NH12AX7
SYMATTR SpiceModel NH12AX7
SYMBOL Misc\\neonbulb 1056 336 R0
SYMATTR InstName U2
SYMATTR Value2 Vstrike=80 Vhold=60
SYMATTR SpiceLine Zon=2K Ihold=20u
SYMATTR SpiceLine2 Tau=40u
TEXT -296 400 Left 2 !.inc dmtriodep.inc
