Version 4
SHEET 1 1204 888
WIRE 512 -80 432 -80
WIRE 688 -80 592 -80
WIRE -624 96 -624 64
WIRE -528 96 -624 96
WIRE 544 96 544 48
WIRE -208 144 -224 144
WIRE 240 144 -208 144
WIRE 432 144 432 -80
WIRE 432 144 320 144
WIRE 464 144 432 144
WIRE -624 176 -624 96
WIRE 688 176 688 -80
WIRE 688 176 624 176
WIRE 896 176 688 176
WIRE 1072 176 960 176
WIRE 1088 176 1072 176
WIRE -528 192 -528 96
WIRE -224 192 -224 144
WIRE 464 208 400 208
WIRE 1088 224 1088 176
WIRE 672 240 624 240
WIRE 400 256 400 208
WIRE 672 288 672 240
WIRE -624 304 -624 256
WIRE -576 304 -624 304
WIRE -528 304 -528 256
WIRE -528 304 -576 304
WIRE 544 304 544 256
WIRE -576 320 -576 304
WIRE -224 336 -224 272
WIRE 1088 336 1088 304
WIRE -624 352 -624 304
WIRE -528 352 -528 304
WIRE 512 432 432 432
WIRE 688 432 592 432
WIRE -624 512 -624 432
WIRE -528 512 -528 416
WIRE -528 512 -624 512
WIRE -624 544 -624 512
WIRE 544 608 544 560
WIRE -208 656 -224 656
WIRE 240 656 -208 656
WIRE 432 656 432 432
WIRE 432 656 320 656
WIRE 464 656 432 656
WIRE 688 688 688 432
WIRE 688 688 624 688
WIRE 896 688 688 688
WIRE 1072 688 960 688
WIRE 1088 688 1072 688
WIRE -224 704 -224 656
WIRE 464 720 400 720
WIRE 1088 736 1088 688
WIRE 672 752 624 752
WIRE 400 768 400 720
WIRE 672 800 672 752
WIRE 544 816 544 768
WIRE -224 848 -224 784
WIRE 1088 848 1088 816
FLAG 672 288 0
FLAG -576 320 0
FLAG -624 64 B+
FLAG -624 544 B-
FLAG 544 48 B+
FLAG 544 304 B-
FLAG 1088 336 0
FLAG 400 256 0
FLAG -224 336 0
FLAG 1072 176 AOUTL
FLAG -208 144 AINL
FLAG 672 800 0
FLAG 544 560 B+
FLAG 544 816 B-
FLAG 1088 848 0
FLAG 400 768 0
FLAG -224 848 0
FLAG 1072 688 AOUTR
FLAG -208 656 AINR
SYMBOL K2-W 544 176 R0
SYMATTR InstName X1
SYMBOL voltage -624 160 R0
WINDOW 0 -64 17 Left 2
WINDOW 3 -96 86 Left 2
WINDOW 123 0 0 Left 0
SYMATTR InstName V1
SYMATTR Value 300V
SYMATTR SpiceLine Rser=0.1
SYMBOL cap -544 192 R0
SYMATTR InstName C1
SYMATTR Value 400µ
SYMATTR SpiceLine Rser=0.1
SYMBOL voltage -624 336 M0
WINDOW 0 41 16 Left 2
WINDOW 123 0 0 Left 0
SYMATTR InstName V2
SYMATTR Value 300V
SYMATTR SpiceLine Rser=0.1
SYMBOL cap -544 416 M180
WINDOW 0 24 56 Left 2
WINDOW 3 24 8 Left 2
SYMATTR InstName C2
SYMATTR Value 400µ
SYMATTR SpiceLine Rser=0.1
SYMBOL res 1072 208 R0
SYMATTR InstName R1
SYMATTR Value 10k
SYMBOL res 336 128 R90
WINDOW 0 0 56 VBottom 2
WINDOW 3 32 56 VTop 2
SYMATTR InstName R3
SYMATTR Value 49.9k
SYMBOL res 608 -96 R90
WINDOW 0 0 56 VBottom 2
WINDOW 3 32 56 VTop 2
SYMATTR InstName R2
SYMATTR Value 100k
SYMBOL voltage -224 176 R0
WINDOW 123 24 124 Left 2
WINDOW 39 0 0 Left 0
SYMATTR InstName V3
SYMATTR Value wavefile=Bridge_Burning.wav chan=0
SYMBOL cap 960 160 R90
WINDOW 0 0 32 VBottom 2
WINDOW 3 32 32 VTop 2
SYMATTR InstName C3
SYMATTR Value 2.2µ
SYMBOL K2-W 544 688 R0
SYMATTR InstName X2
SYMBOL res 1072 720 R0
SYMATTR InstName R4
SYMATTR Value 10k
SYMBOL res 336 640 R90
WINDOW 0 0 56 VBottom 2
WINDOW 3 32 56 VTop 2
SYMATTR InstName R5
SYMATTR Value 49.9k
SYMBOL res 608 416 R90
WINDOW 0 0 56 VBottom 2
WINDOW 3 32 56 VTop 2
SYMATTR InstName R6
SYMATTR Value 100k
SYMBOL voltage -224 688 R0
WINDOW 123 24 124 Left 2
WINDOW 39 0 0 Left 0
SYMATTR InstName V4
SYMATTR Value wavefile=Bridge_Burning.wav chan=1
SYMBOL cap 960 672 R90
WINDOW 0 0 32 VBottom 2
WINDOW 3 32 32 VTop 2
SYMATTR InstName C4
SYMATTR Value 2.2µ
TEXT -766 -246 Left 2 !.tran 0 30 0.05
TEXT -768 -208 Left 2 !.wave test.wav 16 44.1k V(AOUTL) V(AOUTR)
