Version 4
SHEET 1 2056 972
WIRE 1616 -96 1248 -96
WIRE 688 -80 432 -80
WIRE 1376 -32 1328 -32
WIRE 1408 -32 1376 -32
WIRE 1328 -16 1328 -32
WIRE 288 32 256 32
WIRE 432 32 432 -80
WIRE 432 32 368 32
WIRE 1408 64 1408 -32
WIRE 1440 64 1408 64
WIRE 1328 80 1328 48
WIRE -960 96 -960 64
WIRE -864 96 -960 96
WIRE -624 96 -624 64
WIRE -528 96 -624 96
WIRE 544 96 544 48
WIRE 1408 96 1408 64
WIRE 1440 112 1440 64
WIRE 432 144 432 32
WIRE 464 144 432 144
WIRE 1248 144 1248 -96
WIRE 1392 144 1248 144
WIRE 1616 160 1616 -96
WIRE 1616 160 1504 160
WIRE 1968 160 1616 160
WIRE 2000 160 1968 160
WIRE -960 176 -960 96
WIRE -624 176 -624 96
WIRE 688 176 688 -80
WIRE 688 176 624 176
WIRE 896 176 688 176
WIRE 1088 176 960 176
WIRE 1392 176 1088 176
WIRE -864 192 -864 96
WIRE -528 192 -528 96
WIRE -48 208 -64 208
WIRE 64 208 -48 208
WIRE 176 208 128 208
WIRE 464 208 176 208
WIRE 2000 208 2000 160
WIRE 176 224 176 208
WIRE 1088 224 1088 176
WIRE 672 240 624 240
WIRE 1440 240 1440 208
WIRE -64 256 -64 208
WIRE 1328 272 1328 240
WIRE 672 288 672 240
WIRE -960 304 -960 256
WIRE -912 304 -960 304
WIRE -864 304 -864 256
WIRE -864 304 -912 304
WIRE -624 304 -624 256
WIRE -576 304 -624 304
WIRE -528 304 -528 256
WIRE -528 304 -576 304
WIRE 544 304 544 256
WIRE -912 320 -912 304
WIRE -576 320 -576 304
WIRE 1088 336 1088 304
WIRE -960 352 -960 304
WIRE -864 352 -864 304
WIRE -624 352 -624 304
WIRE -528 352 -528 304
WIRE 2000 352 2000 288
WIRE 1328 384 1328 336
WIRE 1376 384 1328 384
WIRE 1408 384 1408 224
WIRE 1408 384 1376 384
WIRE -64 400 -64 336
WIRE 176 400 176 304
WIRE 1616 416 1248 416
WIRE 688 432 432 432
WIRE 1376 480 1328 480
WIRE 1408 480 1376 480
WIRE 1328 496 1328 480
WIRE -960 512 -960 432
WIRE -864 512 -864 416
WIRE -864 512 -960 512
WIRE -624 512 -624 432
WIRE -528 512 -528 416
WIRE -528 512 -624 512
WIRE -960 544 -960 512
WIRE -624 544 -624 512
WIRE 288 544 256 544
WIRE 432 544 432 432
WIRE 432 544 368 544
WIRE 1408 576 1408 480
WIRE 1440 576 1408 576
WIRE 1328 592 1328 560
WIRE 544 608 544 560
WIRE 1408 608 1408 576
WIRE 1440 624 1440 576
WIRE 432 656 432 544
WIRE 464 656 432 656
WIRE 1248 656 1248 416
WIRE 1392 656 1248 656
WIRE 1616 672 1616 416
WIRE 1616 672 1504 672
WIRE 1968 672 1616 672
WIRE 2000 672 1968 672
WIRE 688 688 688 432
WIRE 688 688 624 688
WIRE 896 688 688 688
WIRE 1088 688 960 688
WIRE 1392 688 1088 688
WIRE -48 720 -64 720
WIRE 464 720 -48 720
WIRE 2000 720 2000 672
WIRE 1088 736 1088 688
WIRE 672 752 624 752
WIRE 1440 752 1440 720
WIRE -64 768 -64 720
WIRE 1328 784 1328 752
WIRE 672 800 672 752
WIRE 544 816 544 768
WIRE 1088 848 1088 816
WIRE 2000 864 2000 800
WIRE 1328 896 1328 848
WIRE 1376 896 1328 896
WIRE 1408 896 1408 736
WIRE 1408 896 1376 896
WIRE -64 912 -64 848
FLAG 672 288 0
FLAG -576 320 0
FLAG -624 64 B+
FLAG -624 544 B-
FLAG 544 48 B+
FLAG 544 304 B-
FLAG 1088 336 0
FLAG -64 400 0
FLAG 1968 160 AOUTL
FLAG -48 208 AINL
FLAG 672 800 0
FLAG 544 560 B+
FLAG 544 816 B-
FLAG 1088 848 0
FLAG -64 912 0
FLAG 1968 672 AOUTR
FLAG -48 720 AINR
FLAG 256 32 B-
FLAG 256 544 B-
FLAG 176 400 0
FLAG -912 320 0
FLAG -960 64 VCC
FLAG -960 544 VEE
FLAG 1328 240 0
FLAG 1328 80 0
FLAG 1440 240 0
FLAG 1376 -32 VCC
FLAG 1376 384 VEE
FLAG 2000 352 0
FLAG 1328 752 0
FLAG 1328 592 0
FLAG 1440 752 0
FLAG 1376 480 VCC
FLAG 1376 896 VEE
FLAG 2000 864 0
SYMBOL K2-W 544 176 R0
SYMATTR InstName X1
SYMBOL voltage -624 160 R0
WINDOW 0 -64 17 Left 2
WINDOW 3 -96 86 Left 2
WINDOW 123 0 0 Left 0
SYMATTR InstName V1
SYMATTR Value 300V
SYMATTR SpiceLine Rser=0.1
SYMBOL cap -544 192 R0
SYMATTR InstName C1
SYMATTR Value 400µ
SYMATTR SpiceLine Rser=0.1
SYMBOL voltage -624 336 M0
WINDOW 0 41 16 Left 2
WINDOW 123 0 0 Left 0
SYMATTR InstName V2
SYMATTR Value 300V
SYMATTR SpiceLine Rser=0.1
SYMBOL cap -544 416 M180
WINDOW 0 24 56 Left 2
WINDOW 3 24 8 Left 2
SYMATTR InstName C2
SYMATTR Value 400µ
SYMATTR SpiceLine Rser=0.1
SYMBOL res 1072 208 R0
SYMATTR InstName R1
SYMATTR Value 10k
SYMBOL res 272 48 R270
WINDOW 0 32 56 VTop 2
WINDOW 3 0 56 VBottom 2
SYMATTR InstName R3
SYMATTR Value 1Meg
SYMBOL cap 960 160 R90
WINDOW 0 0 32 VBottom 2
WINDOW 3 32 32 VTop 2
SYMATTR InstName C3
SYMATTR Value 2.2µ
SYMBOL K2-W 544 688 R0
SYMATTR InstName X2
SYMBOL res 1072 720 R0
SYMATTR InstName R4
SYMATTR Value 10k
SYMBOL cap 960 672 R90
WINDOW 0 0 32 VBottom 2
WINDOW 3 32 32 VTop 2
SYMATTR InstName C4
SYMATTR Value 2.2µ
SYMBOL res 272 560 R270
WINDOW 0 32 56 VTop 2
WINDOW 3 0 56 VBottom 2
SYMATTR InstName R2
SYMATTR Value 1Meg
SYMBOL voltage -64 240 R0
WINDOW 123 24 124 Left 2
WINDOW 39 0 0 Left 0
SYMATTR InstName V5
SYMATTR Value wavefile=Bridge_Burning.wav chan=0
SYMBOL voltage -64 752 R0
WINDOW 123 24 124 Left 2
WINDOW 39 0 0 Left 0
SYMATTR InstName V6
SYMATTR Value wavefile=Bridge_Burning.wav chan=1
SYMBOL cap 128 192 R90
WINDOW 0 0 32 VBottom 2
WINDOW 3 32 32 VTop 2
SYMATTR InstName C5
SYMATTR Value 1µ
SYMBOL res 160 208 R0
SYMATTR InstName R5
SYMATTR Value 22k
SYMBOL Opamps\\LT6018 1440 160 R0
SYMATTR InstName U1
SYMBOL voltage -960 160 R0
WINDOW 0 -64 17 Left 2
WINDOW 3 -96 86 Left 2
WINDOW 123 0 0 Left 0
SYMATTR InstName V3
SYMATTR Value 15
SYMATTR SpiceLine Rser=0.1
SYMBOL cap -880 192 R0
SYMATTR InstName C6
SYMATTR Value 22µ
SYMATTR SpiceLine Rser=0.1
SYMBOL voltage -960 336 M0
WINDOW 0 41 16 Left 2
WINDOW 123 0 0 Left 0
SYMATTR InstName V4
SYMATTR Value 15
SYMATTR SpiceLine Rser=0.1
SYMBOL cap -880 416 M180
WINDOW 0 24 56 Left 2
WINDOW 3 24 8 Left 2
SYMATTR InstName C7
SYMATTR Value 22µ
SYMATTR SpiceLine Rser=0.1
SYMBOL cap 1312 -16 R0
SYMATTR InstName C8
SYMATTR Value 0.01µ
SYMBOL cap 1312 272 R0
SYMATTR InstName C9
SYMATTR Value 0.01µ
SYMBOL res 1984 192 R0
SYMATTR InstName R6
SYMATTR Value 48
SYMBOL Opamps\\LT6018 1440 672 R0
SYMATTR InstName U2
SYMBOL cap 1312 496 R0
SYMATTR InstName C10
SYMATTR Value 0.01µ
SYMBOL cap 1312 784 R0
SYMATTR InstName C11
SYMATTR Value 0.01µ
SYMBOL res 1984 704 R0
SYMATTR InstName R7
SYMATTR Value 48
TEXT -768 -248 Left 2 !.tran 0 30 0.05
TEXT -768 -208 Left 2 !.wave test.wav 16 44.1k V(AOUTL) V(AOUTR)
